[Format]      =  4.0
[Frequency]   =  0
[Precision]   =  1e-008
[MinAngle]    =  30
[Depth]       =  50
[LengthUnits] =  millimeters
[ProblemType] =  planar
[Coordinates] =  cartesian
[ACSolver]    =  0
[PrevSoln]    =  ""
[Comment]     =  "Add comments here."
[PointProps]   = 0
[BdryProps]   = 0
[BlockProps]  = 3
  <BeginBlock>
    <BlockName> = "Air"
    <Mu_x> = 1
    <Mu_y> = 1
    <H_c> = 0
    <H_cAngle> = 0
    <J_re> = 0
    <J_im> = 0
    <Sigma> = 0
    <d_lam> = 0
    <Phi_h> = 0
    <Phi_hx> = 0
    <Phi_hy> = 0
    <LamType> = 0
    <LamFill> = 1
    <NStrands> = 0
    <WireD> = 0
    <BHPoints> = 0
  <EndBlock>
  <BeginBlock>
    <BlockName> = "phase"
    <Mu_x> = 1
    <Mu_y> = 1
    <H_c> = 0
    <H_cAngle> = 0
    <J_re> = 0
    <J_im> = 0
    <Sigma> = 58
    <d_lam> = 0
    <Phi_h> = 0
    <Phi_hx> = 0
    <Phi_hy> = 0
    <LamType> = 3
    <LamFill> = 1
    <NStrands> = 1
    <WireD> = 1
    <BHPoints> = 0
  <EndBlock>
  <BeginBlock>
    <BlockName> = "Steel3413"
    <Mu_x> = 1
    <Mu_y> = 1
    <H_c> = 0
    <H_cAngle> = 0
    <J_re> = 0
    <J_im> = 0
    <Sigma> = 0
    <d_lam> = 0
    <Phi_h> = 0
    <Phi_hx> = 0
    <Phi_hy> = 0
    <LamType> = 0
    <LamFill> = 1
    <NStrands> = 0
    <WireD> = 0
    <BHPoints> = 41
      0	0
      0.59999999999999998	81
      0.65000000000000002	91
      0.69999999999999996	110
      0.75	120
      0.80000000000000004	130
      0.84999999999999998	140
      0.90000000000000002	152
      0.94999999999999996	167
      1	182
      1.05	198
      1.1000000000000001	213
      1.1499999999999999	228
      1.2	243
      1.25	258
      1.3	275
      1.3500000000000001	295
      1.3999999999999999	320
      1.45	350
      1.5	390
      1.55	450
      1.6000000000000001	520
      1.6499999999999999	632
      1.7	800
      1.75	1040
      1.8	1500
      1.8500000000000001	2366
      1.8999999999999999	3825
      1.95	7000
      2	16000
      2.0299999999999998	30000
      2.0499999999999998	50000
      2.1000000000000001	100000
      2.1400000000000001	150000
      2.1749999999999998	200000
      2.1899999999999999	250000
      2.1949999999999998	300000
      2.1960000000000002	350000
      2.1970000000000001	400000
      2.198	450000
      2.1989999999999998	500000
  <EndBlock>
[CircuitProps]  = 2
  <BeginCircuit>
    <CircuitName> = "A+"
    <TotalAmps_re> = 870
    <TotalAmps_im> = 0
    <CircuitType> = 1
  <EndCircuit>
  <BeginCircuit>
    <CircuitName> = "A-"
    <TotalAmps_re> = -870
    <TotalAmps_im> = 0
    <CircuitType> = 1
  <EndCircuit>
[NumPoints] = 154
48.260553106551363	-42.70166991874833	0	5
34.548604384665943	-28.989721196862909	0	5
-48.260553106551313	42.701669918748372	0	5
-34.5486043846659	28.989721196862941	0	5
-44.928380883937727	3.930723997919364	0	5
-64.32000473299253	3.9307239979193569	0	5
-13.56183155764268	43.012634478745063	0	5
-20.98268473133167	60.928158855044522	0	5
40.004188576337818	-20.824862456900021	0	5
57.919712952637298	-28.245715630589011	0	5
42.701669918748337	48.260553106551363	0	5
28.989721196862931	34.548604384665907	0	5
28.989721196862945	-34.548604384665907	0	5
42.701669918748387	-48.260553106551313	0	5
-43.012634478745028	-13.56183155764276	0	5
-60.928158855044479	-20.982684731331808	0	5
-64.320004732992516	-3.9307239979194142	0	5
-44.92838088393772	-3.9307239979193969	0	5
13.561831557642741	-43.012634478745042	0	5
20.982684731331759	-60.928158855044501	0	5
57.919712952637262	28.245715630589071	0	5
40.00418857633781	20.824862456900039	0	5
-40.004188576337803	20.824862456900028	0	5
-57.919712952637262	28.24571563058905	0	5
3.9307239979194151	-64.320004732992516	0	5
3.9307239979193973	-44.928380883937727	0	5
-20.98268473133168	-60.928158855044508	0	5
-13.561831557642691	-43.012634478745049	0	5
44.928380883937741	-3.9307239979193711	0	5
64.32000473299253	-3.930723997919344	0	5
-3.930723997919396	64.320004732992516	0	5
-3.930723997919392	44.928380883937727	0	5
60.928158855044501	-20.98268473133172	0	5
43.012634478745063	-13.561831557642691	0	5
43.012634478745049	13.56183155764273	0	5
60.928158855044501	20.982684731331751	0	5
-28.245715630589	57.919712952637283	0	5
-20.824862456899989	40.004188576337818	0	5
-34.548604384665893	-28.989721196862959	0	5
-48.260553106551299	-42.701669918748387	0	5
-28.989721196862909	34.548604384665921	0	5
-42.701669918748323	48.260553106551349	0	5
28.245715630589075	-57.919712952637248	0	5
20.82486245690006	-40.004188576337803	0	5
20.824862456900028	40.00418857633781	0	5
28.245715630589046	57.919712952637283	0	5
3.9307239979193778	44.928380883937727	0	5
3.9307239979193813	64.32000473299253	0	5
-57.919712952637227	-28.2457156305891	0	5
-40.004188576337782	-20.82486245690006	0	5
34.548604384665921	28.989721196862941	0	5
48.260553106551328	42.701669918748358	0	5
-20.8248624569	-40.004188576337818	0	5
-28.245715630588979	-57.919712952637298	0	5
-42.701669918748301	-48.260553106551377	0	5
-28.989721196862892	-34.548604384665943	0	5
-60.928158855044487	20.982684731331741	0	5
-43.012634478745028	13.561831557642719	0	5
20.98268473133173	60.928158855044501	0	5
13.561831557642719	43.012634478745028	0	5
64.320004732992516	3.930723997919404	0	5
44.928380883937741	3.9307239979193889	0	5
-3.9307239979193618	-44.928380883937727	0	5
-3.9307239979193351	-64.32000473299253	0	5
-32.506378292689121	-31.118087510202706	0	6
-27.830282814865079	-25.786022540218575	0	0
43.202243447367238	-12.592305631395067	0	0
36.246491989819845	-11.208720642069984	0	0
32.506378292689341	31.118087510202059	0	0
27.830282814865292	25.786022540217914	0	0
-31.118087510202287	32.506378292688879	0	0
-25.786022540218131	27.830282814864862	0	0
31.118087510202464	-32.50637829268959	0	0
25.786022540218354	-27.830282814865519	0	0
-3.5154243790131119	-37.77678376245774	0	0
-4.8990093683383744	-44.732535220005047	0	0
43.710393141597208	10.695865154677566	0	0
36.994743182288005	8.4162091749541865	0	0
-21.932838698537193	-30.957942222053305	0	0
-26.608934176361313	-36.290007192037315	0	0
-30.957942222052885	21.932838698536951	0	0
-36.290007192036875	26.608934176361085	0	0
12.592305631394801	43.202243447366818	0	0
11.208720642069739	36.246491989819411	0	0
-37.776783762457285	3.5154243790129058	0	0
-44.732535220004614	4.8990093683381435	0	0
-10.69586515467779	43.710393141596754	0	0
-8.4162091749544459	36.994743182287536	0	0
-43.710393141596974	-10.695865154678241	0	0
-36.994743182287756	-8.4162091749548651	0	0
34.473366601066324	15.843945063919774	0	0
41.18901656037557	18.12360104364295	0	0
-12.592305631394598	-43.202243447367472	0	0
-11.20872064206953	-36.246491989820058	0	0
37.776783762457505	-3.5154243790135808	0	0
44.732535220004834	-4.8990093683388221	0	0
10.695865154678005	-43.710393141597429	0	0
8.4162091749546768	-36.99474318228819	0	0
-15.843945063919998	34.473366601065884	0	0
-18.123601043643173	41.189016560375116	0	0
30.957942222053084	-21.932838698537655	0	0
36.290007192037073	-26.608934176361785	0	0
3.5154243790133233	37.776783762457086	0	0
4.8990093683385734	44.732535220004415	0	0
-43.202243447367003	12.592305631394385	0	0
-36.246491989819631	11.20872064206929	0	0
-34.473366601066097	-15.843945063920447	0	0
-41.189016560375329	-18.123601043643657	0	0
21.932838698537406	30.957942222052658	0	0
26.608934176361551	36.290007192036647	0	0
15.843945063920213	-34.473366601066552	0	0
18.123601043643397	-41.189016560375777	0	0
-12.57162035071927	63.201803469184178	0	5
-8.7985735229273558	44.233416146185697	0	5
12.571620350719289	63.201803469184178	0	5
8.7985735229273683	44.233416146185697	0	5
35.800945815783123	53.579901816776058	0	5
25.05621750918402	37.499279514844822	0	5
53.579901816776001	35.800945815783187	0	5
37.499279514844787	25.05621750918408	0	5
63.201803469184171	12.571620350719311	0	5
44.233416146185697	8.7985735229273931	0	5
63.201803469184171	-12.571620350719281	0	5
44.233416146185697	-8.79857352292737	0	5
53.579901816776058	-35.80094581578313	0	5
37.499279514844822	-25.05621750918403	0	5
35.800945815783187	-53.579901816775987	0	5
25.05621750918408	-37.499279514844787	0	5
12.571620350719257	-63.201803469184171	0	5
8.7985735229273487	-44.233416146185697	0	5
-12.571620350719281	-63.201803469184171	0	5
-8.79857352292737	-44.233416146185697	0	5
-25.05621750918403	-37.499279514844822	0	5
-35.800945815783138	-53.579901816776037	0	5
-37.499279514844787	-25.05621750918408	0	5
-53.579901816776001	-35.80094581578318	0	5
-44.233416146185697	-8.7985735229273949	0	5
-63.201803469184163	-12.571620350719311	0	5
-44.233416146185697	8.7985735229273629	0	5
-63.201803469184163	12.57162035071927	0	5
-37.499279514844822	25.05621750918403	0	5
-53.579901816776051	35.800945815783123	0	5
-35.800945815783187	53.579901816775987	0	5
-25.056217509184091	37.499279514844787	0	5
29.231733097513917	9.9228362939085972	0	0
-29.23173309751391	-9.9228362939085972	0	0
76.5	-9.0000000000000003e-016	0	5
-76.5	-9.0000000000000003e-016	0	5
45.100000000000009	-9.0000000000000003e-016	0	5
-45.100000000000009	-9.0000000000000003e-016	0	5
124.77304303834109	-9.0000000000000003e-016	0	5
-124.7730430383411	-9.0000000000000003e-016	0	5
-16.410487783497455	56.994700549328975	0	0
71.200000000000003	-27.899999999999999	0	0
[NumSegments] = 72
0	1	-1	0	0	5
2	3	-1	0	0	5
4	5	-1	0	0	5
6	7	-1	0	0	5
8	9	-1	0	0	5
10	11	-1	0	0	5
12	13	-1	0	0	5
14	15	-1	0	0	5
16	17	-1	0	0	5
18	19	-1	0	0	5
20	21	-1	0	0	5
24	25	-1	0	0	5
26	27	-1	0	0	5
28	29	-1	0	0	5
30	31	-1	0	0	5
32	33	-1	0	0	5
34	35	-1	0	0	5
36	37	-1	0	0	5
38	39	-1	0	0	5
40	41	-1	0	0	5
42	43	-1	0	0	5
44	45	-1	0	0	5
46	47	-1	0	0	5
48	49	-1	0	0	5
50	51	-1	0	0	5
52	53	-1	0	0	5
54	55	-1	0	0	5
56	57	-1	0	0	5
58	59	-1	0	0	5
60	61	-1	0	0	5
62	63	-1	0	0	5
64	65	-1	0	0	6
66	67	-1	0	0	6
68	69	-1	0	0	6
70	71	-1	0	0	6
72	73	-1	0	0	6
74	75	-1	0	0	6
76	77	-1	0	0	6
78	79	-1	0	0	6
80	81	-1	0	0	6
82	83	-1	0	0	6
84	85	-1	0	0	6
86	87	-1	0	0	6
88	89	-1	0	0	6
90	91	-1	0	0	6
92	93	-1	0	0	6
94	95	-1	0	0	6
96	97	-1	0	0	6
98	99	-1	0	0	6
100	101	-1	0	0	6
102	103	-1	0	0	6
104	105	-1	0	0	6
106	107	-1	0	0	6
108	109	-1	0	0	6
110	111	-1	0	0	6
112	113	-1	0	0	5
114	115	-1	0	0	5
116	117	-1	0	0	5
118	119	-1	0	0	5
120	121	-1	0	0	5
122	123	-1	0	0	5
124	125	-1	0	0	5
126	127	-1	0	0	5
128	129	-1	0	0	5
130	131	-1	0	0	5
132	133	-1	0	0	5
134	135	-1	0	0	5
138	139	-1	0	0	5
140	141	-1	0	0	5
142	143	-1	0	0	5
137	136	-1	0	0	5
22	23	-1	0	0	5
[NumArcSegments] = 113
46	31	9.9999999999999858	5	0	0	5
56	139	7.7528896371615659	5	0	0	5
139	5	7.7528896371615268	5	0	0	5
0	124	7.7528896371615108	5	0	0	5
124	9	7.7528896371614939	5	0	0	5
54	133	7.752889637161557	5	0	0	5
133	53	7.7528896371616138	5	0	0	5
12	1	10	5	0	0	5
30	112	7.7528896371614495	5	0	0	5
112	7	7.7528896371614566	5	0	0	5
10	116	7.7528896371615437	5	0	0	5
116	45	7.7528896371614735	5	0	0	5
16	137	7.7528896371614628	5	0	0	5
137	15	7.7528896371615419	5	0	0	5
24	128	7.7528896371614389	5	0	0	5
128	19	7.7528896371615623	5	0	0	5
18	43	9.9999999999998863	5	0	0	5
42	126	7.7528896371615614	5	0	0	5
126	13	7.7528896371615685	5	0	0	5
48	135	7.7528896371614717	5	0	0	5
135	39	7.7528896371615241	5	0	0	5
6	37	10	5	0	0	5
32	122	7.752889637161557	5	0	0	5
122	29	7.7528896371615685	5	0	0	5
4	149	4.9999999999999796	5	0	0	5
52	27	10	5	0	0	5
58	114	7.752889637161525	5	0	0	5
114	47	7.7528896371615081	5	0	0	5
60	120	7.752889637161501	5	0	0	5
120	35	7.7528896371615188	5	0	0	5
34	21	9.9999999999999929	5	0	0	5
38	55	10.000000000000114	5	0	0	5
36	142	7.7528896371616156	5	0	0	5
142	41	7.7528896371614904	5	0	0	5
62	25	10	5	0	0	5
26	130	7.7528896371614175	5	0	0	5
130	63	7.7528896371614717	5	0	0	5
44	59	10	5	0	0	5
22	57	10	5	0	0	5
2	141	7.7528896371616058	5	0	0	5
141	23	7.7528896371614815	5	0	0	5
28	148	4.9999999999999867	5	0	0	5
8	33	10	5	0	0	5
40	3	9.9999999999998863	5	0	0	5
20	118	7.7528896371615161	5	0	0	5
118	51	7.752889637161501	5	0	0	5
50	11	9.9999999999999858	5	0	0	5
14	49	10	5	0	0	5
102	87	18.133015812380307	5	0	0	6
72	101	9.9999999999998863	5	0	0	6
66	95	9.9999999999997726	5	0	0	6
108	83	18.133015812380293	5	0	0	6
90	69	18.1330158123803	5	0	0	6
110	73	18.133015812380336	5	0	0	6
106	65	18.133015812380307	5	0	0	6
80	105	18.133015812380293	5	0	0	6
100	67	18.133015812380336	5	0	0	6
70	81	9.9999999999999005	5	0	0	6
76	91	9.9999999999998295	5	0	0	6
98	71	18.133015812380279	5	0	0	6
88	107	9.9999999999998863	5	0	0	6
82	103	9.9999999999998934	5	0	0	6
144	145	180	5	0	0	6
145	144	180	5	0	0	6
84	89	18.133015812380307	5	0	0	0
96	111	10	5	0	0	6
92	75	9.9999999999997726	5	0	0	6
94	77	18.133015812380393	5	0	0	6
74	97	18.133015812380336	5	0	0	6
64	79	9.9999999999997726	5	0	0	6
78	93	18.133015812380307	5	0	0	6
104	85	9.9999999999997726	5	0	0	6
86	99	9.9999999999999858	5	0	0	6
68	109	9.9999999999998757	5	0	0	6
146	147	180	5	0	0	5
147	153	158.60207524870694	5	0	0	5
148	61	5.0000000000000124	5	0	0	5
149	17	5.0000000000000195	5	0	0	5
61	121	6.2500000000000062	5	0	0	5
121	34	6.25	5	0	0	5
21	119	6.2500000000000195	5	0	0	5
119	50	6.2499999999999876	5	0	0	5
11	117	6.2500000000000817	5	0	0	5
117	44	6.2499999999999467	5	0	0	5
59	115	6.2500000000000284	5	0	0	5
115	46	6.2499999999999867	5	0	0	5
31	113	6.2499999999999547	5	0	0	5
113	6	6.2499999999999858	5	0	0	5
37	143	6.2500000000000862	5	0	0	5
143	40	6.2499999999999378	5	0	0	5
3	140	6.2500000000000826	5	0	0	5
140	22	6.2499999999999494	5	0	0	5
57	138	6.2500000000000311	5	0	0	5
138	4	6.2499999999999991	5	0	0	5
17	136	6.2499999999999956	5	0	0	5
136	14	6.2500000000000444	5	0	0	5
49	134	6.2499999999999734	5	0	0	5
134	38	6.2500000000000187	5	0	0	5
55	132	6.2499999999999991	5	0	0	5
132	52	6.2499999999999911	5	0	0	5
27	131	6.2499999999999796	5	0	0	5
131	62	6.250000000000008	5	0	0	5
25	129	6.2499999999999361	5	0	0	5
129	18	6.2500000000000737	5	0	0	5
43	127	6.2499999999999964	5	0	0	5
127	12	6.2500000000000044	5	0	0	5
1	125	6.2500000000000124	5	0	0	5
125	8	6.2499999999999627	5	0	0	5
33	123	6.2499999999999742	5	0	0	5
123	28	6.2499999999999947	5	0	0	5
150	151	180	5	0	0	5
151	150	180	5	0	0	5
153	146	21.397924751293061	5	0	0	5
[NumHoles] = 0
[NumBlockLabels] = 37
-14.800000000000001	54.5	2	-1	0	0	5	1	0
-3	69.5	3	-1	0	0	5	1	0
-7.7999999999999998	59.100000000000001	2	-1	2	0	5	1	0
7.4000000000000004	58.200000000000003	2	-1	1	0	5	1	0
15.199999999999999	54.200000000000003	2	-1	1	0	5	1	0
27.5	51.600000000000001	2	-1	2	0	5	1	0
34.700000000000003	46.600000000000001	2	-1	0	0	5	1	0
45.100000000000001	35.5	2	-1	0	0	5	1	0
51.600000000000001	28.300000000000001	2	-1	0	0	5	1	0
55.600000000000001	14.6	2	-1	0	0	5	1	0
57.5	7	2	-1	0	0	5	1	0
57.299999999999997	-5.9000000000000004	2	-1	0	0	5	1	0
56.700000000000003	-14.199999999999999	2	-1	0	0	5	1	0
51.600000000000001	-29.199999999999999	2	-1	0	0	5	1	0
47.5	-35.5	2	-1	0	0	5	1	0
34.600000000000001	-46.799999999999997	2	-1	0	0	5	1	0
27.5	-51.600000000000001	2	-1	0	0	5	1	0
15.899999999999999	-57.100000000000001	2	-1	0	0	5	1	0
7.4000000000000004	-58.600000000000001	2	-1	0	0	5	1	0
-6.7999999999999998	-59.5	2	-1	0	0	5	1	0
-15	-57.700000000000003	2	-1	0	0	5	1	0
-28.600000000000001	-51.200000000000003	2	-1	0	0	5	1	0
-33.5	-45.700000000000003	2	-1	0	0	5	1	0
-45.100000000000001	-34.899999999999999	2	-1	0	0	5	1	0
-48.600000000000001	-29	2	-1	0	0	5	1	0
-56.399999999999999	-15.300000000000001	2	-1	0	0	5	1	0
-58.799999999999997	-6.7000000000000002	2	-1	0	0	5	1	0
-58	8.5	2	-1	0	0	5	1	0
-57.100000000000001	17.699999999999999	2	-1	0	0	5	1	0
-50.299999999999997	27.899999999999999	2	-1	0	0	5	1	0
-46	36.399999999999999	2	-1	0	0	5	1	0
-37.700000000000003	44.200000000000003	2	-1	0	0	5	1	0
-28.5	52.5	2	-1	0	0	5	1	0
5.5677606709653062	5.3749456844559793	1	-1	0	0	0	1	0
-19.87698466420774	26.201249601094418	3	-1	0	0	0	1	0
-22.255636707451139	33.208532559358204	1	-1	0	0	0	1	0
84.995128990219285	53.246577804925508	1	-1	0	0	0	1	0
